Properties=species:S:1:pos:R:3 =T pbc="F F F"
 OpenBabel07022111093D

 14 13  0  0  0  0  0  0  0  0999 V2000
   -0.3861   -0.9787   -0.3463 O   0  0  0  0  0  0  0  0  0  0  0  0
   -2.5507   -0.0444   -0.4322 C   0  0  0  0  0  0  0  0  0  0  0  0
   -1.3478   -0.1420    0.1326 C   0  0  0  0  0  0  0  0  0  0  0  0
    0.9085   -0.7589    0.2224 C   0  0  0  0  0  0  0  0  0  0  0  0
    1.5018    0.5366   -0.2257 C   0  0  0  0  0  0  0  0  0  0  0  0
    1.9273    1.4786    0.6178 C   0  0  0  0  0  0  0  0  0  0  0  0
   -2.7993   -0.6078   -1.3211 H   0  0  0  0  0  0  0  0  0  0  0  0
   -3.2913    0.6023    0.0135 H   0  0  0  0  0  0  0  0  0  0  0  0
   -1.0778    0.4229    1.0220 H   0  0  0  0  0  0  0  0  0  0  0  0
    0.8512   -0.7977    1.3168 H   0  0  0  0  0  0  0  0  0  0  0  0
    1.5057   -1.6045   -0.1221 H   0  0  0  0  0  0  0  0  0  0  0  0
    1.5730    0.6868   -1.2990 H   0  0  0  0  0  0  0  0  0  0  0  0
    2.3656    2.4022    0.2616 H   0  0  0  0  0  0  0  0  0  0  0  0
    1.8522    1.3420    1.6912 H   0  0  0  0  0  0  0  0  0  0  0  0
  1  3  1  0  0  0  0
  1  4  1  0  0  0  0
  2  8  1  0  0  0  0
  2  3  2  0  0  0  0
  3  9  1  0  0  0  0
  4 10  1  0  0  0  0
  5  4  1  0  0  0  0
  5  6  2  0  0  0  0
  6 14  1  0  0  0  0
  7  2  1  0  0  0  0
 11  4  1  0  0  0  0
 12  5  1  0  0  0  0
 13  6  1  0  0  0  0
M  END
$$$$
